simulator lang=spectre
include "gpdk045_nmos1v.scs"
